13
molecules
O -4.053030 0.065001 -1.525160
H -4.566710 0.974813 -1.912820
H -3.067820 0.330172 -1.477310
H -4.370360 -0.049164 -0.572274
O -4.581760 -0.256435 0.939478
H -4.349860 0.471090 1.504340
H -5.393870 -0.726611 1.228070
O -3.818880 2.024990 2.187990
H -3.690880 1.961360 3.202150
H -4.546490 2.751300 2.045370
O -5.628340 3.730740 1.385610
H -6.090650 4.418470 1.860350
H -5.158540 4.200260 0.615875
