7
A1.xyz
O 0.0000000000 0.0000000000 0.0000000000
O 1.1647110000 -1.3425320000 -1.7824940000
H 0.7283060000 -0.4726120000 -0.8547670000
H -0.9134310000 -0.2607260000 0.0895580000
H 0.0328770000 0.9415860000 -0.1998470000
H 1.5082560000 -2.3422320000 -1.5214150000
H 1.5790020000 -1.0099530000 -2.7301750000
