7
A2.xyz
O 0.0000000000 0.0000000000 0.0000000000
O -0.2508467740 -1.7595510167 -1.7824940000
H 0.1202747134 -0.8598405233 -0.8547670000
H -0.7955229148 0.5191122527 0.0895580000
H 0.7327805699 0.5921973733 -0.1998470000
H -0.7808509624 -2.6741650431 -1.5214150000
H 0.2718592319 -1.8545470973 -2.7301750000
