14
AB.xyz
O 0.0000000000 0.0000000000 0.0000000000
O 1.1647110000 -1.3425320000 -1.7824940000
H 0.7283060000 -0.4726120000 -0.8547670000
H -0.9134310000 -0.2607260000 0.0895580000
H 0.0328770000 0.9415860000 -0.1998470000
H 1.5082560000 -2.3422320000 -1.5214150000
H 1.5790020000 -1.0099530000 -2.7301750000
O 0.0000000000 0.0000000000 0.0000000000
O 2.4543760000 0.5989030000 -0.4063240000
H 1.5018470000 0.0887600000 -0.1597020000
H -0.2647450000 0.8522200000 0.3976390000
H -0.4299750000 -0.0751850000 -0.9678470000
H 3.1471950000 1.0521590000 0.2896800000
H 2.9027010000 0.0897510000 -1.1327990000
