14
AB3.xyz
O 0.0000000000 0.0000000000 0.0000000000
O 1.7773418030 0.0000000000 -1.7824940000
H 0.8342586331 0.2404251759 -0.8547670000
H -0.4016391974 -0.8608252982 0.0895580000
H -0.6896912739 0.6418652812 -0.1998470000
H 2.7576033812 -0.3956140736 -1.5214150000
H 1.7976144004 0.5308811974 -2.7301750000
O 0.0000000000 0.0000000000 0.0000000000
O 1.8067640008 0.0000000000 -1.8120014876
H 1.1044763371 -0.2697961377 -0.9981330286
H 0.1887583225 0.8906878603 0.3543036112
H -0.9207516185 0.0288874870 -0.5278646327
H 2.8472193748 0.2760972277 -1.7067224684
H 1.6351949782 -0.6009181663 -2.5849558318
