14
AB5.xyz
O 0.0000000000 5.4280670000 6.0056520000
O 1.1647110000 4.0855350000 4.2231580000
H 0.7283060000 4.9554550000 5.1508850000
H -0.9134310000 5.1673410000 6.0952100000
H 0.0328770000 6.3696530000 5.8058050000
H 1.5082560000 3.0858350000 4.4842370000
H 1.5790020000 4.4181140000 3.2754770000
O 0.0000000000 5.4280670000 6.0056520000
O 1.1839916794 4.0633106636 4.1936505124
H 0.5199820255 4.4169900354 5.0075189714
H 0.7964848667 5.8691638441 6.3599556112
H -0.5815578978 6.1424957517 5.4777873673
H 2.0743658212 3.4583222735 4.2989295316
H 0.6176514325 3.7991188832 3.4206961682
