           7
gener
O           0.000000000         5.675242000         4.136594000
O           1.194360000         4.298535000         2.308723000
H           0.996514000         4.690631000         3.338742000
H          -0.754313000         5.941165000         3.492070000
H           0.247527000         6.175911000         4.913429000
H           1.951627000         4.922863000         2.016181000
H           1.444839000         3.317499000         2.304999000
