           7
gener
O           0.000000000         5.428067000         6.005652000
O           1.164711000         4.085535000         4.223158000
H           0.728306000         4.955455000         5.150885000
H          -0.913431000         5.167341000         6.095210000
H           0.032877000         6.369653000         5.805805000
H           1.508256000         3.085835000         4.484237000
H           1.579002000         4.418114000         3.275477000
