           7
gener
O          -0.000359000         4.274073000         5.845405000
O           1.820350000         2.368918000         6.154317000
H           1.015688000         3.411848000         6.332381000
H           0.445324000         5.057468000         5.517700000
H          -0.907213000         4.388279000         6.229803000
H           2.804742000         2.696233000         5.874352000
H           1.838859000         1.595277000         6.725408000
