           7
gener
O           2.168760000         2.374360000         7.206080000
O           3.711730000         0.447902000         6.447400000
H           2.870070000         1.427050000         6.872760000
H           1.895400000         2.994300000         6.444340000
H           2.579630000         2.987800000         7.841790000
H           4.526490000         0.793903000         6.312800000
H           3.337520000        -0.052725000         5.690040000
