           7
gener
O           1.497203000         5.739748000         2.063786000
O           2.612069000         4.454672000         0.357574000
H           1.823392000         4.939393000         1.222315000
H           0.846748000         6.553602000         1.783352000
H           1.259470000         5.130116000         2.821240000
H           3.229622000         4.819950000        -0.435526000
H           3.029059000         3.669917000         0.772202000
