           7
gener
O           2.253130000         2.373550000         7.142730000
O           3.624760000         0.488067000         6.410730000
H           2.902420000         1.137240000         6.907060000
H           2.166700000         3.188620000         6.623440000
H           1.968820000         2.538360000         8.067890000
H           4.424450000         1.105020000         6.452340000
H           3.788030000        -0.443359000         6.698170000
