           7
gener
O           2.289930000         2.371180000         7.162480000
O           3.620310000         0.519273000         6.417530000
H           2.948060000         1.394910000         6.821920000
H           1.683730000         2.688910000         6.472270000
H           1.884930000         2.490000000         8.028640000
H           4.432380000         0.775744000         6.021770000
H           3.787890000        -0.281276000         6.983060000
