           7
gener
O           2.227110000         2.340540000         7.090920000
O           3.674180000         0.560492000         6.480630000
H           3.040770000         1.480620000         6.734780000
H           1.820510000         2.132750000         7.942410000
H           2.470640000         3.257760000         7.055610000
H           3.724330000        -0.180580000         7.131080000
H           3.822690000         0.209871000         5.597850000
