           7
gener
O           2.279650000         2.395560000         7.171340000
O           3.630470000         0.486064000         6.406520000
H           3.003280000         1.522870000         6.782840000
H           1.669960000         2.788610000         6.521070000
H           1.795460000         2.312750000         8.015210000
H           4.488840000         0.729875000         5.927110000
H           3.781370000        -0.145711000         7.115380000
