           7
gener
O          -0.000034000         5.494042000         4.709970000
O           2.449170000         6.167142000         3.649043000
H           1.709894000         5.904321000         4.398109000
H          -0.357673000         4.609954000         5.100109000
H          -0.834469000         6.185307000         4.804840000
H           2.077604000         6.481039000         2.803637000
H           3.092522000         6.810519000         4.012302000
