           7
gener
O           0.000000000         4.252341000         5.565477000
O           2.286485000         3.583371000         6.340027000
H           1.400980000         3.998213000         5.968698000
H          -0.616656000         3.984773000         4.776121000
H          -0.364583000         4.621412000         6.391066000
H           3.007825000         4.313710000         6.626592000
H           1.958161000         2.820609000         6.820045000
