           7
gener
O           2.253700000         2.335420000         7.112160000
O           3.690870000         0.561545000         6.430310000
H           2.940400000         1.454160000         6.640820000
H           1.286660000         2.416690000         7.241230000
H           2.662920000         3.072130000         7.619100000
H           3.993190000         0.263694000         7.349580000
H           3.309060000        -0.241727000         6.072420000
