           7
gener
O          -0.001248000         4.408592000         7.396527000
O           1.850332000         3.200704000         7.928625000
H           1.042648000         3.829970000         7.880112000
H          -0.359897000         3.816593000         6.621196000
H          -0.685551000         4.751923000         8.144024000
H           1.702594000         2.418735000         8.512229000
H           2.718681000         3.631991000         7.619058000
