           7
gener
O           0.000000000         5.191313000         4.417823000
O           1.277276000         3.719029000         2.463056000
H           0.586533000         4.275109000         3.138200000
H          -0.790216000         5.801979000         4.045147000
H          -0.238115000         4.896617000         5.359336000
H           1.609799000         2.766297000         2.632013000
H           1.388997000         4.213365000         1.584115000
