           7
gener
O           2.204580000         2.333410000         7.190940000
O           3.688390000         0.533563000         6.399340000
H           3.019170000         1.436140000         6.786790000
H           1.720620000         2.899630000         6.537340000
H           2.488800000         2.946260000         7.884220000
H           4.522170000         0.385000000         6.900800000
H           3.260210000        -0.226186000         6.055390000
