           7
gener
O          -0.001754000         7.386099000         2.006643000
O           1.241293000         7.235562000         4.076386000
H           0.815239000         7.725191000         3.315170000
H          -0.698516000         6.668726000         2.086244000
H          -0.103196000         8.167882000         1.371599000
H           0.864751000         7.589136000         4.945020000
H           2.193550000         6.841252000         3.950579000
