           7
gener
O           0.000000000         4.852270000         5.592174000
O           1.125325000         3.555137000         3.869955000
H           0.339238000         4.068214000         4.829519000
H          -0.535547000         4.639061000         6.488539000
H          -0.300776000         5.629403000         5.019013000
H           0.685962000         3.385528000         2.994510000
H           1.768646000         2.876339000         4.299203000
