           7
gener
O           0.000000000         5.324436000         4.767918000
O           1.186279000         3.957044000         2.952413000
H           0.573293000         4.737114000         3.604710000
H           0.500411000         5.721692000         5.535727000
H          -0.774783000         5.995136000         4.619702000
H           2.180400000         3.783895000         3.126430000
H           0.575072000         3.427603000         2.379786000
