           7
gener
O           2.225360000         2.344480000         7.184200000
O           3.655870000         0.522396000         6.440670000
H           2.951460000         1.526830000         6.877510000
H           2.610930000         3.072170000         7.729340000
H           1.628170000         2.698040000         6.484590000
H           3.394640000        -0.391874000         6.196450000
H           4.612130000         0.537231000         6.327810000
