           7
gener
O          -0.001125000         5.936113000         2.227398000
O           0.982857000         5.749078000         4.258182000
H           0.571964000         5.380400000         3.288961000
H           0.701003000         6.075596000         1.595804000
H          -0.830440000         5.451841000         1.958704000
H           0.234813000         5.903675000         4.950859000
H           1.777696000         5.118108000         4.535629000
