           7
gener
O           2.296090000         2.383760000         7.150380000
O           3.634580000         0.503063000         6.495610000
H           2.962160000         1.426740000         7.025500000
H           2.051120000         2.789560000         6.308710000
H           1.592630000         2.292920000         7.800600000
H           4.615220000         0.588655000         6.393070000
H           3.191730000         0.027909000         5.752590000
