           7
gener
O           2.244710000         2.408140000         7.148960000
O           3.672120000         0.513248000         6.430260000
H           3.056740000         1.330020000         6.933570000
H           1.366140000         2.315590000         6.812090000
H           2.277240000         2.841890000         8.023330000
H           4.583590000         0.195967000         6.808710000
H           3.348830000        -0.106173000         5.762510000
