           7
gener
O           0.000000000         5.024719000         7.857812000
O           2.363571000         6.126903000         7.904595000
H           1.511458000         5.476785000         8.297235000
H          -0.491668000         5.066231000         7.040954000
H          -0.660873000         4.606031000         8.486297000
H           1.897993000         6.794768000         7.172429000
H           3.005392000         5.482433000         7.565286000
