           7
gener
O           0.000000000         5.934443000         5.097635000
O           2.109196000         6.592525000         5.701436000
H           1.296866000         6.335745000         5.219882000
H          -0.606420000         5.773851000         4.350409000
H          -0.290717000         5.709821000         6.016783000
H           2.366013000         6.562247000         6.640225000
H           2.915797000         6.685471000         5.172910000
