           7
gener
O           3.323256000         1.259265000         2.764573000
O           4.412212000         0.004054000         1.098015000
H           3.550203000         0.516803000         1.852917000
H           3.985445000         1.507499000         3.454314000
H           2.416021000         1.123136000         3.246479000
H           4.979352000        -0.693501000         1.519463000
H           4.797115000         0.481909000         0.203991000
