           7
gener
O           0.000000000         6.938717000         6.845679000
O           2.503062000         6.990594000         7.723034000
H           1.556429000         6.759177000         7.163269000
H          -0.441096000         6.779208000         7.770302000
H          -0.493038000         6.437877000         6.089635000
H           3.370871000         7.358773000         7.283329000
H           2.336406000         7.564584000         8.616868000
