           7
gener
O          -0.000001000         5.512343000         7.794244000
O           2.092079000         5.158494000         6.826484000
H           1.251885000         5.338821000         7.735808000
H          -0.391913000         4.825457000         8.394914000
H          -0.354257000         5.271754000         6.853100000
H           2.986960000         5.500176000         6.975391000
H           2.166637000         4.243464000         6.383356000
