           7
gener
O           2.255390000         2.367200000         7.153610000
O           3.673180000         0.514639000         6.479480000
H           2.933890000         1.363070000         6.916310000
H           1.944380000         2.758840000         7.967500000
H           1.779110000         2.663830000         6.380530000
H           3.396120000        -0.388808000         6.329820000
H           4.392600000         0.807948000         5.891100000
