           7
gener
O           0.000000000         4.657892000         5.413429000
O           2.272024000         4.727212000         5.127126000
H           1.296213000         4.517474000         5.369400000
H          -0.739543000         4.176216000         6.014338000
H          -0.365834000         5.110848000         4.620591000
H           2.632501000         5.623266000         5.643948000
H           2.390893000         4.617833000         4.163267000
