           7
gener
O           2.237970000         2.364590000         7.197140000
O           3.715990000         0.546957000         6.448960000
H           2.929420000         1.289140000         6.811800000
H           2.364840000         3.030250000         6.521370000
H           1.330710000         2.358390000         7.498360000
H           3.580590000         0.381973000         5.520100000
H           3.837620000        -0.326259000         6.927200000
