           7
gener
O           2.208990000         2.322490000         7.166270000
O           3.678710000         0.534073000         6.495050000
H           2.913020000         1.442670000         6.730730000
H           1.704580000         2.949060000         6.612250000
H           2.822080000         2.829110000         7.699980000
H           4.398720000         0.740475000         5.818010000
H           3.256200000        -0.355328000         6.176250000
