           7
gener
O           2.271260000         2.368280000         7.179070000
O           3.646040000         0.531317000         6.379980000
H           2.931680000         1.376900000         7.060670000
H           1.604630000         2.606580000         6.532430000
H           2.097860000         2.794510000         8.040420000
H           4.606660000         0.612193000         6.414040000
H           3.384280000        -0.467010000         6.612640000
