           7
gener
O           0.000000000         6.502110000         6.422829000
O           1.246089000         5.065775000         4.515792000
H           0.945040000         5.741754000         5.329629000
H           0.185009000         7.432085000         6.755481000
H          -0.910654000         6.105965000         6.753199000
H           0.713189000         4.722691000         3.771355000
H           2.200394000         4.687856000         4.615820000
