           7
gener
O           1.132648000         4.653713000         5.595115000
O           2.196690000         3.427221000         3.966685000
H           1.350452000         4.110115000         4.543890000
H           0.698995000         4.249269000         6.456332000
H           1.758992000         5.453058000         5.609548000
H           3.121539000         3.790368000         3.998726000
H           2.277661000         2.502205000         4.178981000
