           7
gener
O           2.229910000         2.354440000         7.189330000
O           3.700350000         0.538811000         6.405390000
H           2.943250000         1.391770000         6.764530000
H           2.628060000         3.245010000         7.048340000
H           1.248670000         2.325360000         7.339560000
H           3.298330000        -0.152519000         5.864790000
H           4.300940000         0.214207000         7.076890000
